
     RDKit          3D

  0  0  0  0  0  0  0  0  0  0999 V3000
M  V30 BEGIN CTAB
M  V30 COUNTS 34 36 0 0 0
M  V30 BEGIN ATOM
M  V30 1 C 0.0000 -0.0000 4.5101 0
M  V30 2 Pb -1.2096 -0.6984 3.9633 0
M  V30 3 Pb 1.2097 -0.6984 3.9634 0
M  V30 4 Pb 0.0000 1.3968 3.9633 0
M  V30 5 C -3.6823 -2.1260 -1.5033 0
M  V30 6 Pb -3.6390 -2.1010 -0.0041 0
M  V30 7 Pb -3.6391 -0.7042 -1.9796 0
M  V30 8 Pb -2.4295 -2.7995 -1.9796 0
M  V30 9 C 3.6822 -2.1259 -1.5032 0
M  V30 10 Pb 3.6389 -2.1010 -0.0041 0
M  V30 11 Pb 2.4294 -2.7995 -1.9795 0
M  V30 12 Pb 3.6391 -0.7042 -1.9795 0
M  V30 13 C -0.0000 4.2519 -1.5032 0
M  V30 14 Pb -0.0000 4.2019 -0.0041 0
M  V30 15 Pb 1.2097 3.5037 -1.9795 0
M  V30 16 Pb -1.2097 3.5037 -1.9795 0
M  V30 17 Ba -1.9214 -1.1093 3.3936 0
M  V30 18 Ba -3.4112 -1.9695 0.9607 0
M  V30 19 Ag -2.7895 -1.6105 2.2777 0
M  V30 20 Ba 1.9215 -1.1093 3.3937 0
M  V30 21 Ba 3.4112 -1.9695 0.9607 0
M  V30 22 Ag 2.7895 -1.6105 2.2778 0
M  V30 23 Ba 0.0000 2.2187 3.3937 0
M  V30 24 Ba 0.0000 3.9389 0.9607 0
M  V30 25 Ag 0.0000 3.2211 2.2778 0
M  V30 26 Ba -1.4899 -3.0790 -2.1772 0
M  V30 27 Ba 1.4898 -3.0790 -2.1772 0
M  V30 28 Ag -0.0000 -3.2213 -2.2779 0
M  V30 29 Ba -3.4114 0.2492 -2.1772 0
M  V30 30 Ba -1.9215 2.8297 -2.1772 0
M  V30 31 Ag -2.7897 1.6106 -2.2778 0
M  V30 32 Ba 3.4113 0.2493 -2.1772 0
M  V30 33 Ba 1.9215 2.8297 -2.1772 0
M  V30 34 Ag 2.7897 1.6107 -2.2779 0
M  V30 END ATOM
M  V30 BEGIN BOND
M  V30 1 1 1 2
M  V30 2 1 1 3
M  V30 3 1 1 4
M  V30 4 1 5 6
M  V30 5 1 5 7
M  V30 6 1 5 8
M  V30 7 1 9 10
M  V30 8 1 9 11
M  V30 9 1 9 12
M  V30 10 1 13 14
M  V30 11 1 13 15
M  V30 12 1 13 16
M  V30 13 1 17 19
M  V30 14 1 18 19
M  V30 15 1 20 22
M  V30 16 1 21 22
M  V30 17 1 23 25
M  V30 18 1 24 25
M  V30 19 1 26 28
M  V30 20 1 27 28
M  V30 21 1 29 31
M  V30 22 1 30 31
M  V30 23 1 32 34
M  V30 24 1 33 34
M  V30 25 1 2 17
M  V30 26 1 6 18
M  V30 27 1 3 20
M  V30 28 1 10 21
M  V30 29 1 4 23
M  V30 30 1 14 24
M  V30 31 1 8 26
M  V30 32 1 11 27
M  V30 33 1 7 29
M  V30 34 1 16 30
M  V30 35 1 12 32
M  V30 36 1 15 33
M  V30 END BOND
M  V30 END CTAB
M  END

$$$$
