
     RDKit          3D

  0  0  0  0  0  0  0  0  0  0999 V3000
M  V30 BEGIN CTAB
M  V30 COUNTS 34 36 0 0 0
M  V30 BEGIN ATOM
M  V30 1 C -0.9586 1.6298 4.3138 0
M  V30 2 Pb -1.8516 0.8089 3.4312 0
M  V30 3 Pb -0.6685 1.5201 2.8462 0
M  V30 4 Pb -1.8571 2.3046 3.3202 0
M  V30 5 C -3.6834 1.1682 -1.7958 0
M  V30 6 Pb -2.7866 0.4930 -0.8010 0
M  V30 7 Pb -2.7918 1.9890 -0.9120 0
M  V30 8 Pb -2.1989 1.1579 -2.0109 0
M  V30 9 C 4.0629 -0.2586 1.2587 0
M  V30 10 Pb 2.6763 -0.7479 0.9619 0
M  V30 11 Pb 3.5348 -0.2096 -0.1445 0
M  V30 12 Pb 2.9853 0.7200 0.8964 0
M  V30 13 C 0.2133 -3.3924 -3.2471 0
M  V30 14 Pb 0.7467 -3.4433 -1.8461 0
M  V30 15 Pb 0.4101 -2.1233 -2.4721 0
M  V30 16 Pb 1.6001 -2.9015 -2.9539 0
M  V30 17 Ba -2.4467 0.2618 2.8427 0
M  V30 18 Ba -2.1886 0.0425 -0.1381 0
M  V30 19 Ag -2.3178 0.1523 1.3522 0
M  V30 20 Ba -2.4564 2.7543 2.6579 0
M  V30 21 Ba -2.1972 2.5362 -0.3229 0
M  V30 22 Ag -2.3268 2.6449 1.1675 0
M  V30 23 Ba 1.7523 -1.0749 0.7640 0
M  V30 24 Ba 1.1023 -3.4764 -0.9121 0
M  V30 25 Ag 1.4270 -2.2759 -0.0737 0
M  V30 26 Ba 3.1829 -0.1766 -1.0800 0
M  V30 27 Ba 2.5247 -2.5744 -2.7586 0
M  V30 28 Ag 2.8539 -1.3758 -1.9189 0
M  V30 29 Ba -0.4752 1.4468 1.8677 0
M  V30 30 Ba 2.2675 1.3731 0.6547 0
M  V30 31 Ag 0.8963 1.4097 1.2615 0
M  V30 32 Ba -1.2093 1.1509 -2.1543 0
M  V30 33 Ba 0.5412 -1.2772 -1.9554 0
M  V30 34 Ag -0.3340 -0.0632 -2.0552 0
M  V30 END ATOM
M  V30 BEGIN BOND
M  V30 1 1 1 2
M  V30 2 1 1 3
M  V30 3 1 1 4
M  V30 4 1 5 6
M  V30 5 1 5 7
M  V30 6 1 5 8
M  V30 7 1 9 10
M  V30 8 1 9 11
M  V30 9 1 9 12
M  V30 10 1 13 14
M  V30 11 1 13 15
M  V30 12 1 13 16
M  V30 13 1 17 19
M  V30 14 1 18 19
M  V30 15 1 20 22
M  V30 16 1 21 22
M  V30 17 1 23 25
M  V30 18 1 24 25
M  V30 19 1 26 28
M  V30 20 1 27 28
M  V30 21 1 29 31
M  V30 22 1 30 31
M  V30 23 1 32 34
M  V30 24 1 33 34
M  V30 25 1 2 17
M  V30 26 1 6 18
M  V30 27 1 4 20
M  V30 28 1 7 21
M  V30 29 1 10 23
M  V30 30 1 14 24
M  V30 31 1 11 26
M  V30 32 1 16 27
M  V30 33 1 3 29
M  V30 34 1 12 30
M  V30 35 1 8 32
M  V30 36 1 15 33
M  V30 END BOND
M  V30 END CTAB
M  END

$$$$
