
     RDKit          3D

  0  0  0  0  0  0  0  0  0  0999 V3000
M  V30 BEGIN CTAB
M  V30 COUNTS 34 36 0 0 0
M  V30 BEGIN ATOM
M  V30 1 C 2.9383 -0.3255 3.5142 0
M  V30 2 Pb 2.0810 -0.5899 2.3121 0
M  V30 3 Pb 3.2773 0.3081 2.1975 0
M  V30 4 Pb 2.0680 0.7632 2.9599 0
M  V30 5 C -2.9298 -0.3798 3.5100 0
M  V30 6 Pb -2.0662 -0.6063 2.3046 0
M  V30 7 Pb -2.0791 0.7348 2.9770 0
M  V30 8 Pb -3.2788 0.2714 2.2045 0
M  V30 9 C 2.9375 0.3651 -3.5176 0
M  V30 10 Pb 2.0686 -0.7239 -2.9616 0
M  V30 11 Pb 2.0814 0.6297 -2.3147 0
M  V30 12 Pb 3.2785 -0.2674 -2.2009 0
M  V30 13 C -2.9307 0.4151 -3.5065 0
M  V30 14 Pb -2.0786 -0.6992 -2.9753 0
M  V30 15 Pb -3.2777 -0.2372 -2.2010 0
M  V30 16 Pb -2.0659 0.6414 -2.3020 0
M  V30 17 Ba 1.5095 -0.7662 1.5106 0
M  V30 18 Ba -1.4905 -0.7574 1.5010 0
M  V30 19 Ag 0.0095 -0.7618 1.5058 0
M  V30 20 Ba 1.4878 1.4890 2.5903 0
M  V30 21 Ba -1.5120 1.4778 2.6217 0
M  V30 22 Ag -0.0121 1.4835 2.6060 0
M  V30 23 Ba 1.4894 -1.4499 -2.5909 0
M  V30 24 Ba -1.5104 -1.4421 -2.6212 0
M  V30 25 Ag -0.0105 -1.4460 -2.6061 0
M  V30 26 Ba 1.5107 0.8061 -1.5127 0
M  V30 27 Ba -1.4893 0.7924 -1.4990 0
M  V30 28 Ag 0.0107 0.7992 -1.5059 0
M  V30 29 Ba 3.5034 0.7305 1.3197 0
M  V30 30 Ba 3.5059 -0.6891 -1.3231 0
M  V30 31 Ag 3.5046 0.0207 -0.0017 0
M  V30 32 Ba -3.5115 0.7055 1.3342 0
M  V30 33 Ba -3.5090 -0.6721 -1.3308 0
M  V30 34 Ag -3.5103 0.0167 0.0017 0
M  V30 END ATOM
M  V30 BEGIN BOND
M  V30 1 1 1 2
M  V30 2 1 1 3
M  V30 3 1 1 4
M  V30 4 1 5 6
M  V30 5 1 5 7
M  V30 6 1 5 8
M  V30 7 1 9 10
M  V30 8 1 9 11
M  V30 9 1 9 12
M  V30 10 1 13 14
M  V30 11 1 13 15
M  V30 12 1 13 16
M  V30 13 1 17 19
M  V30 14 1 18 19
M  V30 15 1 20 22
M  V30 16 1 21 22
M  V30 17 1 23 25
M  V30 18 1 24 25
M  V30 19 1 26 28
M  V30 20 1 27 28
M  V30 21 1 29 31
M  V30 22 1 30 31
M  V30 23 1 32 34
M  V30 24 1 33 34
M  V30 25 1 2 17
M  V30 26 1 6 18
M  V30 27 1 4 20
M  V30 28 1 7 21
M  V30 29 1 10 23
M  V30 30 1 14 24
M  V30 31 1 11 26
M  V30 32 1 16 27
M  V30 33 1 3 29
M  V30 34 1 12 30
M  V30 35 1 8 32
M  V30 36 1 15 33
M  V30 END BOND
M  V30 END CTAB
M  END

$$$$
