
     RDKit          3D

  0  0  0  0  0  0  0  0  0  0999 V3000
M  V30 BEGIN CTAB
M  V30 COUNTS 34 36 0 0 0
M  V30 BEGIN ATOM
M  V30 1 C 2.8928 2.9532 2.7055 0
M  V30 2 Pb 1.4462 2.5634 2.6392 0
M  V30 3 Pb 2.6220 1.8557 1.7177 0
M  V30 4 Pb 2.2002 1.6592 3.0107 0
M  V30 5 C -3.1740 -1.6636 3.3672 0
M  V30 6 Pb -2.4882 -0.3413 3.1981 0
M  V30 7 Pb -1.7204 -1.3044 3.2835 0
M  V30 8 Pb -2.7958 -1.0416 2.0543 0
M  V30 9 C 2.9336 -3.1540 -2.3655 0
M  V30 10 Pb 2.3799 -1.8145 -2.7480 0
M  V30 11 Pb 1.5226 -2.6548 -2.4597 0
M  V30 12 Pb 2.6432 -2.0292 -1.4148 0
M  V30 13 C -2.6531 1.9006 -3.7061 0
M  V30 14 Pb -1.2491 1.4333 -3.4621 0
M  V30 15 Pb -2.4687 1.2632 -2.3596 0
M  V30 16 Pb -2.0932 0.5318 -3.4603 0
M  V30 17 Ba 0.5241 2.1822 2.7008 0
M  V30 18 Ba -1.8723 0.4299 3.0408 0
M  V30 19 Ag -0.7505 1.4057 2.8464 0
M  V30 20 Ba 1.5868 0.8770 3.1141 0
M  V30 21 Ba -0.8008 -0.9124 3.2740 0
M  V30 22 Ag 0.4694 -0.1174 3.2179 0
M  V30 23 Ba 1.8432 -0.9895 -2.9212 0
M  V30 24 Ba -0.3686 0.9732 -3.3498 0
M  V30 25 Ag 0.8232 0.0852 -3.1512 0
M  V30 26 Ba 0.6445 -2.2060 -2.6246 0
M  V30 27 Ba -1.5591 -0.2820 -3.2336 0
M  V30 28 Ag -0.5434 -1.3374 -2.9131 0
M  V30 29 Ba 2.5143 1.0867 1.0855 0
M  V30 30 Ba 2.5277 -1.2492 -0.7976 0
M  V30 31 Ag 2.4655 -0.0786 0.1402 0
M  V30 32 Ba -2.6186 -0.5853 1.1809 0
M  V30 33 Ba -2.4220 0.8007 -1.4728 0
M  V30 34 Ag -2.4646 0.1062 -0.1426 0
M  V30 END ATOM
M  V30 BEGIN BOND
M  V30 1 1 1 2
M  V30 2 1 1 3
M  V30 3 1 1 4
M  V30 4 1 5 6
M  V30 5 1 5 7
M  V30 6 1 5 8
M  V30 7 1 9 10
M  V30 8 1 9 11
M  V30 9 1 9 12
M  V30 10 1 13 14
M  V30 11 1 13 15
M  V30 12 1 13 16
M  V30 13 1 17 19
M  V30 14 1 18 19
M  V30 15 1 20 22
M  V30 16 1 21 22
M  V30 17 1 23 25
M  V30 18 1 24 25
M  V30 19 1 26 28
M  V30 20 1 27 28
M  V30 21 1 29 31
M  V30 22 1 30 31
M  V30 23 1 32 34
M  V30 24 1 33 34
M  V30 25 1 2 17
M  V30 26 1 6 18
M  V30 27 1 4 20
M  V30 28 1 7 21
M  V30 29 1 10 23
M  V30 30 1 14 24
M  V30 31 1 11 26
M  V30 32 1 16 27
M  V30 33 1 3 29
M  V30 34 1 12 30
M  V30 35 1 8 32
M  V30 36 1 15 33
M  V30 END BOND
M  V30 END CTAB
M  END

$$$$
