
     RDKit          3D

  0  0  0  0  0  0  0  0  0  0999 V3000
M  V30 BEGIN CTAB
M  V30 COUNTS 34 36 0 0 0
M  V30 BEGIN ATOM
M  V30 1 C -0.8074 -3.9484 1.4710 0
M  V30 2 Pb -0.5809 -2.6524 0.7507 0
M  V30 3 Pb 0.3245 -3.8207 0.4950 0
M  V30 4 Pb 0.3824 -3.1001 1.8098 0
M  V30 5 C -1.0559 1.3689 3.9442 0
M  V30 6 Pb -0.7565 1.1050 2.4983 0
M  V30 7 Pb 0.2068 0.6574 3.5575 0
M  V30 8 Pb 0.0469 2.1189 3.2575 0
M  V30 9 C -1.2016 -1.4930 -3.8480 0
M  V30 10 Pb -0.0161 -0.6179 -3.5672 0
M  V30 11 Pb -0.8167 -1.1834 -2.4317 0
M  V30 12 Pb 0.0460 -2.0858 -3.2630 0
M  V30 13 C -1.4502 3.8243 -1.3749 0
M  V30 14 Pb -0.1917 3.1397 -1.8195 0
M  V30 15 Pb -0.2317 3.8537 -0.5005 0
M  V30 16 Pb -0.9924 2.5741 -0.6841 0
M  V30 17 Ba -0.4299 -1.7885 0.2703 0
M  V30 18 Ba -0.5569 0.9292 1.5343 0
M  V30 19 Ag -0.4934 -0.4298 0.9025 0
M  V30 20 Ba 1.1757 -2.5346 2.0357 0
M  V30 21 Ba 1.0486 0.1832 3.2997 0
M  V30 22 Ag 1.1120 -1.1757 2.6677 0
M  V30 23 Ba 0.7743 -0.0345 -3.3800 0
M  V30 24 Ba 0.6472 2.6833 -2.1160 0
M  V30 25 Ag 0.7106 1.3244 -2.7480 0
M  V30 26 Ba -0.5601 -0.9771 -1.4874 0
M  V30 27 Ba -0.6872 1.7406 -0.2234 0
M  V30 28 Ag -0.6237 0.3819 -0.8557 0
M  V30 29 Ba 1.0792 -3.7357 -0.1555 0
M  V30 30 Ba 0.8778 -2.4811 -2.8732 0
M  V30 31 Ag 0.9782 -3.1083 -1.5143 0
M  V30 32 Ba 0.7822 2.6189 2.8000 0
M  V30 33 Ba 0.5807 3.8735 0.0823 0
M  V30 34 Ag 0.6811 3.2461 1.4411 0
M  V30 END ATOM
M  V30 BEGIN BOND
M  V30 1 1 1 2
M  V30 2 1 1 3
M  V30 3 1 1 4
M  V30 4 1 5 6
M  V30 5 1 5 7
M  V30 6 1 5 8
M  V30 7 1 9 10
M  V30 8 1 9 11
M  V30 9 1 9 12
M  V30 10 1 13 14
M  V30 11 1 13 15
M  V30 12 1 13 16
M  V30 13 1 17 19
M  V30 14 1 18 19
M  V30 15 1 20 22
M  V30 16 1 21 22
M  V30 17 1 23 25
M  V30 18 1 24 25
M  V30 19 1 26 28
M  V30 20 1 27 28
M  V30 21 1 29 31
M  V30 22 1 30 31
M  V30 23 1 32 34
M  V30 24 1 33 34
M  V30 25 1 2 17
M  V30 26 1 6 18
M  V30 27 1 4 20
M  V30 28 1 7 21
M  V30 29 1 10 23
M  V30 30 1 14 24
M  V30 31 1 11 26
M  V30 32 1 16 27
M  V30 33 1 3 29
M  V30 34 1 12 30
M  V30 35 1 8 32
M  V30 36 1 15 33
M  V30 END BOND
M  V30 END CTAB
M  END

$$$$
