
     RDKit          3D

  0  0  0  0  0  0  0  0  0  0999 V3000
M  V30 BEGIN CTAB
M  V30 COUNTS 34 36 0 0 0
M  V30 BEGIN ATOM
M  V30 1 C -1.6461 3.4593 2.3804 0
M  V30 2 Pb -1.6776 3.7449 0.9081 0
M  V30 3 Pb -0.2227 3.1670 2.7527 0
M  V30 4 Pb -2.4396 2.2080 2.6142 0
M  V30 5 C -0.1558 0.9935 -4.3973 0
M  V30 6 Pb -0.6944 2.1181 -3.5635 0
M  V30 7 Pb -0.9668 -0.2289 -4.0840 0
M  V30 8 Pb 1.2501 0.7301 -3.9454 0
M  V30 9 C -2.4752 -3.6849 0.7960 0
M  V30 10 Pb -2.9866 -2.5055 1.5689 0
M  V30 11 Pb -1.0421 -3.8934 1.1869 0
M  V30 12 Pb -2.4970 -3.3155 -0.6577 0
M  V30 13 C 4.2729 -0.7657 1.2178 0
M  V30 14 Pb 3.6824 0.3795 1.9857 0
M  V30 15 Pb 4.1720 -0.4305 -0.2408 0
M  V30 16 Pb 3.4100 -1.9675 1.4652 0
M  V30 17 Ba -1.6058 3.7229 -0.0890 0
M  V30 18 Ba -1.0028 2.7253 -2.8312 0
M  V30 19 Ag -1.3645 3.3731 -1.5276 0
M  V30 20 Ba -2.8161 1.2816 2.6209 0
M  V30 21 Ba -3.1516 -1.6089 1.9799 0
M  V30 22 Ag -3.1217 -0.1712 2.4068 0
M  V30 23 Ba 0.7052 2.8049 2.8410 0
M  V30 24 Ba 3.1000 1.0955 2.3706 0
M  V30 25 Ag 1.9906 2.0403 2.7263 0
M  V30 26 Ba -1.4355 -1.0027 -3.6580 0
M  V30 27 Ba -2.3739 -2.8956 -1.5568 0
M  V30 28 Ag -1.9927 -2.0393 -2.7279 0
M  V30 29 Ba 2.0859 0.5206 -3.4379 0
M  V30 30 Ba 3.8777 -0.1912 -1.1661 0
M  V30 31 Ag 3.1196 0.1723 -2.4084 0
M  V30 32 Ba -0.0629 -3.8136 1.3732 0
M  V30 33 Ba 2.6674 -2.6325 1.5439 0
M  V30 34 Ag 1.3625 -3.3720 1.5260 0
M  V30 END ATOM
M  V30 BEGIN BOND
M  V30 1 1 1 2
M  V30 2 1 1 3
M  V30 3 1 1 4
M  V30 4 1 5 6
M  V30 5 1 5 7
M  V30 6 1 5 8
M  V30 7 1 9 10
M  V30 8 1 9 11
M  V30 9 1 9 12
M  V30 10 1 13 14
M  V30 11 1 13 15
M  V30 12 1 13 16
M  V30 13 1 17 19
M  V30 14 1 18 19
M  V30 15 1 20 22
M  V30 16 1 21 22
M  V30 17 1 23 25
M  V30 18 1 24 25
M  V30 19 1 26 28
M  V30 20 1 27 28
M  V30 21 1 29 31
M  V30 22 1 30 31
M  V30 23 1 32 34
M  V30 24 1 33 34
M  V30 25 1 2 17
M  V30 26 1 6 18
M  V30 27 1 4 20
M  V30 28 1 10 21
M  V30 29 1 3 23
M  V30 30 1 14 24
M  V30 31 1 7 26
M  V30 32 1 12 27
M  V30 33 1 8 29
M  V30 34 1 15 30
M  V30 35 1 11 32
M  V30 36 1 16 33
M  V30 END BOND
M  V30 END CTAB
M  END

$$$$
