
     RDKit          3D

  0  0  0  0  0  0  0  0  0  0999 V3000
M  V30 BEGIN CTAB
M  V30 COUNTS 34 36 0 0 0
M  V30 BEGIN ATOM
M  V30 1 C -0.0000 -0.0000 4.8036 0
M  V30 2 Pb -1.0185 -0.5880 3.8725 0
M  V30 3 Pb 1.0185 -0.5880 3.8725 0
M  V30 4 Pb -0.0000 1.1760 3.8725 0
M  V30 5 C -3.9221 -2.2644 -1.6012 0
M  V30 6 Pb -3.5014 -2.0215 -0.1821 0
M  V30 7 Pb -3.5014 -0.8455 -1.8453 0
M  V30 8 Pb -2.4829 -2.6095 -1.8453 0
M  V30 9 C 3.9221 -2.2644 -1.6012 0
M  V30 10 Pb 3.5014 -2.0215 -0.1820 0
M  V30 11 Pb 2.4829 -2.6095 -1.8452 0
M  V30 12 Pb 3.5014 -0.8455 -1.8452 0
M  V30 13 C 0.0000 4.5289 -1.6012 0
M  V30 14 Pb 0.0000 4.0431 -0.1820 0
M  V30 15 Pb 1.0185 3.4550 -1.8452 0
M  V30 16 Pb -1.0185 3.4550 -1.8452 0
M  V30 17 Ba -1.6318 -0.9421 3.1664 0
M  V30 18 Ba -3.1293 -1.8067 0.7209 0
M  V30 19 Ag -2.4411 -1.4094 1.9931 0
M  V30 20 Ba 1.6317 -0.9421 3.1665 0
M  V30 21 Ba 3.1293 -1.8067 0.7210 0
M  V30 22 Ag 2.4411 -1.4094 1.9932 0
M  V30 23 Ba -0.0000 1.8842 3.1665 0
M  V30 24 Ba -0.0000 3.6134 0.7210 0
M  V30 25 Ag -0.0000 2.8187 1.9932 0
M  V30 26 Ba -1.4975 -2.7488 -1.9437 0
M  V30 27 Ba 1.4976 -2.7488 -1.9437 0
M  V30 28 Ag 0.0000 -2.8187 -1.9932 0
M  V30 29 Ba -3.1293 0.0775 -1.9437 0
M  V30 30 Ba -1.6317 2.6713 -1.9437 0
M  V30 31 Ag -2.4411 1.4094 -1.9932 0
M  V30 32 Ba 3.1293 0.0775 -1.9437 0
M  V30 33 Ba 1.6318 2.6713 -1.9437 0
M  V30 34 Ag 2.4411 1.4094 -1.9931 0
M  V30 END ATOM
M  V30 BEGIN BOND
M  V30 1 1 1 2
M  V30 2 1 1 3
M  V30 3 1 1 4
M  V30 4 1 5 6
M  V30 5 1 5 7
M  V30 6 1 5 8
M  V30 7 1 9 10
M  V30 8 1 9 11
M  V30 9 1 9 12
M  V30 10 1 13 14
M  V30 11 1 13 15
M  V30 12 1 13 16
M  V30 13 1 17 19
M  V30 14 1 18 19
M  V30 15 1 20 22
M  V30 16 1 21 22
M  V30 17 1 23 25
M  V30 18 1 24 25
M  V30 19 1 26 28
M  V30 20 1 27 28
M  V30 21 1 29 31
M  V30 22 1 30 31
M  V30 23 1 32 34
M  V30 24 1 33 34
M  V30 25 1 2 17
M  V30 26 1 6 18
M  V30 27 1 3 20
M  V30 28 1 10 21
M  V30 29 1 4 23
M  V30 30 1 14 24
M  V30 31 1 8 26
M  V30 32 1 11 27
M  V30 33 1 7 29
M  V30 34 1 16 30
M  V30 35 1 12 32
M  V30 36 1 15 33
M  V30 END BOND
M  V30 END CTAB
M  END

$$$$
