
     RDKit          3D

  0  0  0  0  0  0  0  0  0  0999 V3000
M  V30 BEGIN CTAB
M  V30 COUNTS 34 36 0 0 0
M  V30 BEGIN ATOM
M  V30 1 C -3.6141 1.5120 -0.5737 0
M  V30 2 Pb -3.4405 0.0339 -0.3885 0
M  V30 3 Pb -3.8731 1.5582 0.9013 0
M  V30 4 Pb -2.2489 1.9073 -0.0940 0
M  V30 5 C -0.2477 -2.2627 -3.6836 0
M  V30 6 Pb -1.2214 -2.6696 -2.6214 0
M  V30 7 Pb 0.8215 -2.7078 -2.7347 0
M  V30 8 Pb -0.1876 -0.8990 -3.0593 0
M  V30 9 C 0.1005 -1.0333 2.1819 0
M  V30 10 Pb -0.9483 -0.2559 2.9263 0
M  V30 11 Pb 0.0561 -0.0494 1.0488 0
M  V30 12 Pb 1.2535 -0.2972 2.8042 0
M  V30 13 C 3.5806 1.3772 -0.9725 0
M  V30 14 Pb 2.2924 1.8222 -0.3457 0
M  V30 15 Pb 4.0025 1.4105 0.4648 0
M  V30 16 Pb 3.3734 -0.0938 -0.7663 0
M  V30 17 Ba -3.4017 -0.9561 -0.2536 0
M  V30 18 Ba -1.8347 -2.9256 -1.8779 0
M  V30 19 Ag -2.6177 -1.9389 -1.0676 0
M  V30 20 Ba -3.9167 1.5657 1.8990 0
M  V30 21 Ba -1.6872 0.2289 3.4004 0
M  V30 22 Ag -2.8218 0.9089 2.6895 0
M  V30 23 Ba -1.4344 2.2711 0.3581 0
M  V30 24 Ba 1.5471 2.2152 0.1928 0
M  V30 25 Ag 0.0485 2.1589 0.1616 0
M  V30 26 Ba -0.1473 0.0089 -2.6398 0
M  V30 27 Ba 0.0269 0.6124 0.2980 0
M  V30 28 Ag -0.0603 0.2958 -1.1678 0
M  V30 29 Ba 1.5033 -2.9881 -2.0630 0
M  V30 30 Ba 3.3128 -1.0820 -0.6259 0
M  V30 31 Ag 2.4074 -2.0331 -1.3462 0
M  V30 32 Ba 2.0579 0.1586 3.1928 0
M  V30 33 Ba 4.1563 1.4143 1.4515 0
M  V30 34 Ag 3.1317 0.7973 2.3595 0
M  V30 END ATOM
M  V30 BEGIN BOND
M  V30 1 1 1 2
M  V30 2 1 1 3
M  V30 3 1 1 4
M  V30 4 1 5 6
M  V30 5 1 5 7
M  V30 6 1 5 8
M  V30 7 1 9 10
M  V30 8 1 9 11
M  V30 9 1 9 12
M  V30 10 1 13 14
M  V30 11 1 13 15
M  V30 12 1 13 16
M  V30 13 1 17 19
M  V30 14 1 18 19
M  V30 15 1 20 22
M  V30 16 1 21 22
M  V30 17 1 23 25
M  V30 18 1 24 25
M  V30 19 1 26 28
M  V30 20 1 27 28
M  V30 21 1 29 31
M  V30 22 1 30 31
M  V30 23 1 32 34
M  V30 24 1 33 34
M  V30 25 1 2 17
M  V30 26 1 6 18
M  V30 27 1 3 20
M  V30 28 1 10 21
M  V30 29 1 4 23
M  V30 30 1 14 24
M  V30 31 1 8 26
M  V30 32 1 11 27
M  V30 33 1 7 29
M  V30 34 1 16 30
M  V30 35 1 12 32
M  V30 36 1 15 33
M  V30 END BOND
M  V30 END CTAB
M  END

$$$$
