
     RDKit          3D

  0  0  0  0  0  0  0  0  0  0999 V3000
M  V30 BEGIN CTAB
M  V30 COUNTS 34 36 0 0 0
M  V30 BEGIN ATOM
M  V30 1 C -0.9132 -3.4770 -3.0597 0
M  V30 2 Pb 0.3016 -3.3904 -2.1840 0
M  V30 3 Pb -1.7796 -3.0985 -1.8952 0
M  V30 4 Pb -0.7595 -2.0282 -3.4163 0
M  V30 5 C 4.0264 -0.9265 2.2803 0
M  V30 6 Pb 3.3824 -1.8201 1.2622 0
M  V30 7 Pb 3.7873 0.2581 1.3919 0
M  V30 8 Pb 2.6930 -0.7074 2.9315 0
M  V30 9 C -3.5341 0.3246 3.1128 0
M  V30 10 Pb -3.4822 -0.6317 1.9583 0
M  V30 11 Pb -2.1102 -0.0051 3.4499 0
M  V30 12 Pb -3.0654 1.4322 2.2164 0
M  V30 13 C 0.4172 4.0813 -2.3366 0
M  V30 14 Pb 0.1730 2.7429 -2.9683 0
M  V30 15 Pb -0.6223 3.7806 -1.2977 0
M  V30 16 Pb 1.4707 3.4744 -1.4581 0
M  V30 17 Ba 1.1114 -3.3327 -1.6002 0
M  V30 18 Ba 2.9530 -2.4159 0.5834 0
M  V30 19 Ag 2.0322 -2.8743 -0.5084 0
M  V30 20 Ba -2.3572 -2.8461 -1.1189 0
M  V30 21 Ba -3.4475 -1.2692 1.1886 0
M  V30 22 Ag -2.9024 -2.0577 0.0349 0
M  V30 23 Ba -0.6570 -1.0622 -3.6540 0
M  V30 24 Ba 0.0101 1.8506 -3.3895 0
M  V30 25 Ag -0.3234 0.3942 -3.5217 0
M  V30 26 Ba 1.8041 -0.5612 3.3656 0
M  V30 27 Ba -1.1609 -0.2249 3.6747 0
M  V30 28 Ag 0.3216 -0.3931 3.5202 0
M  V30 29 Ba 3.6279 1.0479 0.7996 0
M  V30 30 Ba 2.1731 3.0698 -0.8724 0
M  V30 31 Ag 2.9005 2.0589 -0.0364 0
M  V30 32 Ba -2.7530 2.1707 1.6188 0
M  V30 33 Ba -1.3152 3.5802 -0.6052 0
M  V30 34 Ag -2.0341 2.8754 0.5068 0
M  V30 END ATOM
M  V30 BEGIN BOND
M  V30 1 1 1 2
M  V30 2 1 1 3
M  V30 3 1 1 4
M  V30 4 1 5 6
M  V30 5 1 5 7
M  V30 6 1 5 8
M  V30 7 1 9 10
M  V30 8 1 9 11
M  V30 9 1 9 12
M  V30 10 1 13 14
M  V30 11 1 13 15
M  V30 12 1 13 16
M  V30 13 1 17 19
M  V30 14 1 18 19
M  V30 15 1 20 22
M  V30 16 1 21 22
M  V30 17 1 23 25
M  V30 18 1 24 25
M  V30 19 1 26 28
M  V30 20 1 27 28
M  V30 21 1 29 31
M  V30 22 1 30 31
M  V30 23 1 32 34
M  V30 24 1 33 34
M  V30 25 1 2 17
M  V30 26 1 6 18
M  V30 27 1 3 20
M  V30 28 1 10 21
M  V30 29 1 4 23
M  V30 30 1 14 24
M  V30 31 1 8 26
M  V30 32 1 11 27
M  V30 33 1 7 29
M  V30 34 1 16 30
M  V30 35 1 12 32
M  V30 36 1 15 33
M  V30 END BOND
M  V30 END CTAB
M  END

$$$$
