
     RDKit          3D

  0  0  0  0  0  0  0  0  0  0999 V3000
M  V30 BEGIN CTAB
M  V30 COUNTS 34 36 0 0 0
M  V30 BEGIN ATOM
M  V30 1 C 0.2239 -0.4958 4.4018 0
M  V30 2 Pb -0.5618 -1.1896 3.3288 0
M  V30 3 Pb 1.1092 -1.4454 3.6504 0
M  V30 4 Pb 0.5700 0.0784 3.0600 0
M  V30 5 C -3.7833 -1.5729 -1.6962 0
M  V30 6 Pb -3.3878 -1.1059 -0.3267 0
M  V30 7 Pb -3.7242 -0.0744 -1.6623 0
M  V30 8 Pb -2.3547 -1.1156 -1.7028 0
M  V30 9 C 3.4802 -2.2277 -1.6111 0
M  V30 10 Pb 3.5602 -1.9878 -0.1326 0
M  V30 11 Pb 2.1030 -2.0429 -1.0462 0
M  V30 12 Pb 3.2384 -0.7777 -1.3129 0
M  V30 13 C 0.0811 4.2975 -1.0936 0
M  V30 14 Pb -0.3161 3.0815 -0.3103 0
M  V30 15 Pb 0.7138 3.0747 -1.6888 0
M  V30 16 Pb -0.9430 3.5089 -1.8548 0
M  V30 17 Ba -1.0857 -1.6521 2.6135 0
M  V30 18 Ba -3.1242 -0.7947 0.5864 0
M  V30 19 Ag -2.1049 -1.2234 1.5999 0
M  V30 20 Ba 1.6993 -2.0785 3.1495 0
M  V30 21 Ba 3.6135 -1.8279 0.8531 0
M  V30 22 Ag 2.6564 -1.9532 2.0013 0
M  V30 23 Ba 0.8008 0.4612 2.1654 0
M  V30 24 Ba -0.5809 2.2708 0.2119 0
M  V30 25 Ag 0.1100 1.3660 1.1887 0
M  V30 26 Ba -1.4023 -0.8107 -1.7072 0
M  V30 27 Ba 1.1848 -1.9198 -0.6696 0
M  V30 28 Ag -0.1088 -1.3652 -1.1884 0
M  V30 29 Ba -3.6848 0.9246 -1.6397 0
M  V30 30 Ba -1.6257 2.9832 -2.3622 0
M  V30 31 Ag -2.6552 1.9539 -2.0010 0
M  V30 32 Ba 3.0772 0.1890 -1.1141 0
M  V30 33 Ba 1.1357 2.2594 -2.0856 0
M  V30 34 Ag 2.1064 1.2242 -1.5999 0
M  V30 END ATOM
M  V30 BEGIN BOND
M  V30 1 1 1 2
M  V30 2 1 1 3
M  V30 3 1 1 4
M  V30 4 1 5 6
M  V30 5 1 5 7
M  V30 6 1 5 8
M  V30 7 1 9 10
M  V30 8 1 9 11
M  V30 9 1 9 12
M  V30 10 1 13 14
M  V30 11 1 13 15
M  V30 12 1 13 16
M  V30 13 1 17 19
M  V30 14 1 18 19
M  V30 15 1 20 22
M  V30 16 1 21 22
M  V30 17 1 23 25
M  V30 18 1 24 25
M  V30 19 1 26 28
M  V30 20 1 27 28
M  V30 21 1 29 31
M  V30 22 1 30 31
M  V30 23 1 32 34
M  V30 24 1 33 34
M  V30 25 1 2 17
M  V30 26 1 6 18
M  V30 27 1 3 20
M  V30 28 1 10 21
M  V30 29 1 4 23
M  V30 30 1 14 24
M  V30 31 1 8 26
M  V30 32 1 11 27
M  V30 33 1 7 29
M  V30 34 1 16 30
M  V30 35 1 12 32
M  V30 36 1 15 33
M  V30 END BOND
M  V30 END CTAB
M  END

$$$$
