
     RDKit          3D

  0  0  0  0  0  0  0  0  0  0999 V3000
M  V30 BEGIN CTAB
M  V30 COUNTS 34 36 0 0 0
M  V30 BEGIN ATOM
M  V30 1 C 0.0739 -0.0984 4.8044 0
M  V30 2 Pb -0.8728 -0.3738 3.6739 0
M  V30 3 Pb 0.8421 -0.3351 3.5380 0
M  V30 4 Pb -0.0240 1.1038 3.9127 0
M  V30 5 C -3.9680 -2.1491 -1.6339 0
M  V30 6 Pb -3.2102 -1.9827 -0.3501 0
M  V30 7 Pb -3.0700 -0.9507 -1.7199 0
M  V30 8 Pb -2.5450 -2.5865 -1.8177 0
M  V30 9 C 3.7923 -2.3481 -1.7740 0
M  V30 10 Pb 2.9524 -2.0659 -0.5636 0
M  V30 11 Pb 2.3433 -2.5706 -2.0918 0
M  V30 12 Pb 3.0932 -1.0302 -1.9306 0
M  V30 13 C 0.1045 4.5972 -1.3788 0
M  V30 14 Pb 0.2286 4.0550 0.0143 0
M  V30 15 Pb 0.9930 3.3886 -1.3759 0
M  V30 16 Pb -0.7218 3.3533 -1.2368 0
M  V30 17 Ba -1.5040 -0.5575 2.9203 0
M  V30 18 Ba -2.7051 -1.8718 0.5058 0
M  V30 19 Ag -2.1045 -1.2146 1.7131 0
M  V30 20 Ba 1.3543 -0.4930 2.6938 0
M  V30 21 Ba 2.3925 -1.8778 0.2434 0
M  V30 22 Ag 1.8734 -1.1854 1.4686 0
M  V30 23 Ba -0.0892 1.9053 3.3183 0
M  V30 24 Ba 0.3114 3.6936 0.9430 0
M  V30 25 Ag 0.1111 2.7995 2.1307 0
M  V30 26 Ba -1.5963 -2.8781 -1.9403 0
M  V30 27 Ba 1.3773 -2.7189 -2.3036 0
M  V30 28 Ag -0.1095 -2.7985 -2.1220 0
M  V30 29 Ba -2.4713 -0.1517 -1.7772 0
M  V30 30 Ba -1.2727 2.5241 -1.1422 0
M  V30 31 Ag -1.8720 1.1862 -1.4597 0
M  V30 32 Ba 2.6272 -0.1516 -2.0350 0
M  V30 33 Ba 1.5853 2.5830 -1.3741 0
M  V30 34 Ag 2.1062 1.2157 -1.7045 0
M  V30 END ATOM
M  V30 BEGIN BOND
M  V30 1 1 1 2
M  V30 2 1 1 3
M  V30 3 1 1 4
M  V30 4 1 5 6
M  V30 5 1 5 7
M  V30 6 1 5 8
M  V30 7 1 9 10
M  V30 8 1 9 11
M  V30 9 1 9 12
M  V30 10 1 13 14
M  V30 11 1 13 15
M  V30 12 1 13 16
M  V30 13 1 17 19
M  V30 14 1 18 19
M  V30 15 1 20 22
M  V30 16 1 21 22
M  V30 17 1 23 25
M  V30 18 1 24 25
M  V30 19 1 26 28
M  V30 20 1 27 28
M  V30 21 1 29 31
M  V30 22 1 30 31
M  V30 23 1 32 34
M  V30 24 1 33 34
M  V30 25 1 2 17
M  V30 26 1 6 18
M  V30 27 1 3 20
M  V30 28 1 10 21
M  V30 29 1 4 23
M  V30 30 1 14 24
M  V30 31 1 8 26
M  V30 32 1 11 27
M  V30 33 1 7 29
M  V30 34 1 16 30
M  V30 35 1 12 32
M  V30 36 1 15 33
M  V30 END BOND
M  V30 END CTAB
M  END

$$$$
