
     RDKit          3D

  0  0  0  0  0  0  0  0  0  0999 V3000
M  V30 BEGIN CTAB
M  V30 COUNTS 34 36 0 0 0
M  V30 BEGIN ATOM
M  V30 1 C 3.8660 -0.0001 3.8661 0
M  V30 2 Pb 2.7389 -0.7834 3.2611 0
M  V30 3 Pb 3.6103 0.0719 2.3897 0
M  V30 4 Pb 2.6509 0.7115 3.3491 0
M  V30 5 C -3.8660 -0.0001 3.8661 0
M  V30 6 Pb -2.7389 -0.7834 3.2611 0
M  V30 7 Pb -2.6509 0.7115 3.3491 0
M  V30 8 Pb -3.6103 0.0719 2.3897 0
M  V30 9 C 3.8660 -0.0001 -3.8661 0
M  V30 10 Pb 2.7389 -0.7834 -3.2611 0
M  V30 11 Pb 2.6509 0.7115 -3.3491 0
M  V30 12 Pb 3.6103 0.0719 -2.3897 0
M  V30 13 C -3.8660 -0.0001 -3.8661 0
M  V30 14 Pb -2.7389 -0.7834 -3.2611 0
M  V30 15 Pb -3.6103 0.0719 -2.3897 0
M  V30 16 Pb -2.6509 0.7115 -3.3491 0
M  V30 17 Ba 1.5000 -3.0000 3.0000 0
M  V30 18 Ba -1.5000 -3.0000 3.0000 0
M  V30 19 Ag 0.0000 -3.0000 3.0000 0
M  V30 20 Ba 1.5000 3.0000 3.0000 0
M  V30 21 Ba -1.5000 3.0000 3.0000 0
M  V30 22 Ag 0.0000 3.0000 3.0000 0
M  V30 23 Ba 1.5000 -3.0000 -3.0000 0
M  V30 24 Ba -1.5000 -3.0000 -3.0000 0
M  V30 25 Ag 0.0000 -3.0000 -3.0000 0
M  V30 26 Ba 1.5000 3.0000 -3.0000 0
M  V30 27 Ba -1.5000 3.0000 -3.0000 0
M  V30 28 Ag 0.0000 3.0000 -3.0000 0
M  V30 29 Ba 3.6103 0.0719 1.5000 0
M  V30 30 Ba 3.6103 0.0719 -1.5000 0
M  V30 31 Ag 3.6103 0.0719 0.0000 0
M  V30 32 Ba -3.6103 0.0719 1.5000 0
M  V30 33 Ba -3.6103 0.0719 -1.5000 0
M  V30 34 Ag -3.6103 0.0719 -0.0000 0
M  V30 END ATOM
M  V30 BEGIN BOND
M  V30 1 1 1 2
M  V30 2 1 1 3
M  V30 3 1 1 4
M  V30 4 1 5 6
M  V30 5 1 5 7
M  V30 6 1 5 8
M  V30 7 1 9 10
M  V30 8 1 9 11
M  V30 9 1 9 12
M  V30 10 1 13 14
M  V30 11 1 13 15
M  V30 12 1 13 16
M  V30 13 1 17 19
M  V30 14 1 18 19
M  V30 15 1 20 22
M  V30 16 1 21 22
M  V30 17 1 23 25
M  V30 18 1 24 25
M  V30 19 1 26 28
M  V30 20 1 27 28
M  V30 21 1 29 31
M  V30 22 1 30 31
M  V30 23 1 32 34
M  V30 24 1 33 34
M  V30 25 1 2 17
M  V30 26 1 6 18
M  V30 27 1 4 20
M  V30 28 1 7 21
M  V30 29 1 10 23
M  V30 30 1 14 24
M  V30 31 1 11 26
M  V30 32 1 16 27
M  V30 33 1 3 29
M  V30 34 1 12 30
M  V30 35 1 8 32
M  V30 36 1 15 33
M  V30 END BOND
M  V30 END CTAB
M  END

$$$$
