
     RDKit          3D

  0  0  0  0  0  0  0  0  0  0999 V3000
M  V30 BEGIN CTAB
M  V30 COUNTS 34 36 0 0 0
M  V30 BEGIN ATOM
M  V30 1 C -0.0000 -0.0000 4.8991 0
M  V30 2 Pb -0.7501 -0.4331 3.6744 0
M  V30 3 Pb 0.7500 -0.4331 3.6744 0
M  V30 4 Pb -0.0000 0.8661 3.6744 0
M  V30 5 C -4.0001 -2.3094 -1.6330 0
M  V30 6 Pb -3.2501 -1.8764 -0.4082 0
M  V30 7 Pb -3.2501 -1.0103 -1.6330 0
M  V30 8 Pb -2.5000 -2.3096 -1.6331 0
M  V30 9 C 4.0001 -2.3094 -1.6330 0
M  V30 10 Pb 3.2502 -1.8765 -0.4081 0
M  V30 11 Pb 2.5001 -2.3096 -1.6331 0
M  V30 12 Pb 3.2502 -1.0103 -1.6331 0
M  V30 13 C 0.0000 4.6189 -1.6330 0
M  V30 14 Pb 0.0000 3.7530 -0.4081 0
M  V30 15 Pb 0.7501 3.3199 -1.6331 0
M  V30 16 Pb -0.7502 3.3199 -1.6331 0
M  V30 17 Ba -1.2502 -0.7218 2.8580 0
M  V30 18 Ba -2.7502 -1.5879 0.4084 0
M  V30 19 Ag -2.0004 -1.1549 1.6333 0
M  V30 20 Ba 1.2502 -0.7218 2.8580 0
M  V30 21 Ba 2.7502 -1.5879 0.4084 0
M  V30 22 Ag 2.0004 -1.1549 1.6333 0
M  V30 23 Ba -0.0000 1.4436 2.8580 0
M  V30 24 Ba -0.0000 3.1757 0.4084 0
M  V30 25 Ag -0.0000 2.3098 1.6333 0
M  V30 26 Ba -1.5000 -2.3097 -1.6332 0
M  V30 27 Ba 1.5000 -2.3097 -1.6332 0
M  V30 28 Ag 0.0000 -2.3098 -1.6333 0
M  V30 29 Ba -2.7502 -0.1442 -1.6332 0
M  V30 30 Ba -1.2502 2.4539 -1.6332 0
M  V30 31 Ag -2.0004 1.1549 -1.6333 0
M  V30 32 Ba 2.7502 -0.1442 -1.6332 0
M  V30 33 Ba 1.2503 2.4539 -1.6332 0
M  V30 34 Ag 2.0003 1.1549 -1.6333 0
M  V30 END ATOM
M  V30 BEGIN BOND
M  V30 1 1 1 2
M  V30 2 1 1 3
M  V30 3 1 1 4
M  V30 4 1 5 6
M  V30 5 1 5 7
M  V30 6 1 5 8
M  V30 7 1 9 10
M  V30 8 1 9 11
M  V30 9 1 9 12
M  V30 10 1 13 14
M  V30 11 1 13 15
M  V30 12 1 13 16
M  V30 13 1 17 19
M  V30 14 1 18 19
M  V30 15 1 20 22
M  V30 16 1 21 22
M  V30 17 1 23 25
M  V30 18 1 24 25
M  V30 19 1 26 28
M  V30 20 1 27 28
M  V30 21 1 29 31
M  V30 22 1 30 31
M  V30 23 1 32 34
M  V30 24 1 33 34
M  V30 25 1 2 17
M  V30 26 1 6 18
M  V30 27 1 3 20
M  V30 28 1 10 21
M  V30 29 1 4 23
M  V30 30 1 14 24
M  V30 31 1 8 26
M  V30 32 1 11 27
M  V30 33 1 7 29
M  V30 34 1 16 30
M  V30 35 1 12 32
M  V30 36 1 15 33
M  V30 END BOND
M  V30 END CTAB
M  END

$$$$
